51control
*SPICE Netlist generated by Advanced Sim server on 2019/5/5 16:47:52

*Schematic Netlist:

.SAVE 0


*Selected Circuit Analyses:
.TRAN 2E-8 5E-6 0 2E-8
.OP

.END
